Version 4
SHEET 1 1412 680
WIRE 1008 -416 304 -416
WIRE -64 -368 -592 -368
WIRE 528 -368 368 -368
WIRE 528 -352 528 -368
WIRE 272 -304 144 -304
WIRE 368 -304 368 -368
WIRE 368 -304 272 -304
WIRE 400 -304 368 -304
WIRE 144 -272 144 -304
WIRE 144 -272 48 -272
WIRE 400 -272 400 -304
WIRE 448 -272 400 -272
WIRE -160 -240 -256 -240
WIRE 144 -208 144 -272
WIRE 400 -208 400 -272
WIRE 864 -208 704 -208
WIRE 48 -160 48 -272
WIRE 144 -160 48 -160
WIRE 448 -160 448 -272
WIRE 448 -160 400 -160
WIRE 704 -160 704 -208
WIRE -592 -144 -592 -368
WIRE -256 -144 -256 -240
WIRE 656 -144 560 -144
WIRE 672 -144 656 -144
WIRE 256 -128 192 -128
WIRE 304 -128 304 -416
WIRE 304 -128 256 -128
WIRE 352 -128 304 -128
WIRE 1008 -112 1008 -416
WIRE 864 -96 864 -208
WIRE 960 -96 864 -96
WIRE 400 -80 400 -112
WIRE 560 -80 560 -144
WIRE 560 -80 400 -80
WIRE 704 -16 704 -80
WIRE -592 0 -592 -64
WIRE -448 0 -592 0
WIRE -384 0 -448 0
WIRE -352 0 -384 0
WIRE -256 0 -256 -64
WIRE -256 0 -352 0
WIRE 656 0 608 0
WIRE 144 48 144 -112
WIRE 608 48 608 0
WIRE 608 48 144 48
WIRE 1008 64 1008 -32
WIRE -448 80 -448 0
WIRE 144 112 144 48
WIRE 400 112 400 -80
WIRE 704 112 704 64
WIRE -64 192 -64 -368
WIRE 64 192 -64 192
WIRE 96 192 64 192
WIRE 464 192 448 192
WIRE 496 192 464 192
WIRE -448 208 -448 160
WIRE 144 256 144 208
WIRE 272 256 144 256
WIRE 400 256 400 208
WIRE 400 256 272 256
WIRE 272 320 272 256
WIRE -160 432 -160 -240
WIRE 496 432 496 192
WIRE 496 432 -160 432
WIRE -352 448 -352 0
WIRE 960 448 960 -48
WIRE 960 448 -352 448
FLAG 272 -304 Vdd
FLAG 64 192 Vip
FLAG 464 192 Vim
FLAG 656 48 0
FLAG 656 -96 0
FLAG 656 -144 Vop
FLAG 656 0 Vom
FLAG 704 112 0
FLAG 1008 64 0
FLAG 256 -128 Vcmfb
FLAG -384 0 Vcm
FLAG -448 208 0
FLAG 528 -272 0
FLAG 144 160 0
FLAG 400 160 0
FLAG 960 -48 Vcm
FLAG 272 400 0
FLAG -640 -128 Vp
FLAG -304 -128 Vn
FLAG -304 -80 0
FLAG -640 -80 0
SYMBOL nmos4 96 112 R0
SYMATTR InstName M3
SYMATTR Value mynmos
SYMATTR Value2 l=0.5u w=4.05u m=4
SYMBOL nmos4 448 112 M0
SYMATTR InstName M4
SYMATTR Value mynmos
SYMATTR Value2 l=0.5u w=4.05u m=4
SYMBOL pmos4 192 -208 M0
SYMATTR InstName M1
SYMATTR Value mypmos
SYMATTR Value2 l=0.5u w=4.05u m=14
SYMBOL pmos4 352 -208 R0
SYMATTR InstName M2
SYMATTR Value mypmos
SYMATTR Value2 l=0.5u w=4.05u m=14
SYMBOL e 704 -32 R0
SYMATTR InstName E1
SYMATTR Value 0.5
SYMBOL e 704 -176 R0
SYMATTR InstName E2
SYMATTR Value 0.5
SYMBOL voltage -448 64 R0
WINDOW 123 0 0 Left 2
WINDOW 39 0 0 Left 2
SYMATTR InstName V1
SYMATTR Value 1.6
SYMBOL e -256 -160 R0
SYMATTR InstName E4
SYMATTR Value 1
SYMBOL voltage 528 -368 R0
WINDOW 123 0 0 Left 2
WINDOW 39 0 0 Left 2
SYMATTR InstName V3
SYMATTR Value 3.3
SYMBOL current 272 320 R0
WINDOW 123 0 0 Left 2
WINDOW 39 0 0 Left 2
SYMATTR InstName I1
SYMATTR Value 200µ
SYMBOL e 1008 -128 R0
SYMATTR InstName E3
SYMATTR Value 10000
SYMBOL e -592 -160 R0
SYMATTR InstName E5
SYMATTR Value 1
TEXT -632 448 Left 2 !.inc I:\\LTSpice\\my_mos_model.txt
TEXT -632 472 Left 2 !.op
