Version 4
SHEET 1 880 680
WIRE 416 48 352 48
WIRE 608 48 576 48
FLAG 192 112 0
FLAG 416 112 0
FLAG 608 112 0
FLAG 112 128 0
FLAG 112 48 Vin
FLAG 608 48 Vout
SYMBOL res 208 32 R90
WINDOW 0 0 56 VBottom 2
WINDOW 3 32 56 VTop 2
SYMATTR InstName R1
SYMATTR Value 1k
SYMBOL cap 176 48 R0
SYMATTR InstName C1
SYMATTR Value 2.317p
SYMBOL cap 400 48 R0
SYMATTR InstName C2
SYMATTR Value 3.7492p
SYMBOL cap 592 48 R0
SYMATTR InstName C3
SYMATTR Value 1.432p
SYMBOL res 288 32 R90
WINDOW 0 0 56 VBottom 2
WINDOW 3 32 56 VTop 2
SYMATTR InstName R2
SYMATTR Value 1k
SYMBOL res 512 32 R90
WINDOW 0 0 56 VBottom 2
WINDOW 3 32 56 VTop 2
SYMATTR InstName R3
SYMATTR Value 1k
SYMBOL ind 256 64 R270
WINDOW 0 32 56 VTop 2
WINDOW 3 5 56 VBottom 2
SYMATTR InstName L1
SYMATTR Value 1.43225µ
SYMBOL ind 480 64 R270
WINDOW 0 32 56 VTop 2
WINDOW 3 5 56 VBottom 2
SYMATTR InstName L2
SYMATTR Value 3.75µ
SYMBOL voltage 112 32 R0
WINDOW 123 24 124 Left 2
WINDOW 39 0 0 Left 0
SYMATTR Value2 AC 1
SYMATTR InstName V1
SYMATTR Value ""
TEXT 432 -104 Left 2 !.ac dec 100 1 1G
